  Page 1                                    Tue May 13 12:36:48 2025

  ******************************************************************
  *                           E P A N E T                          *
  *                   Hydraulic and Water Quality                  *
  *                   Analysis for Pipe Networks                   *
  *                         Version 2.2                            *
  ******************************************************************
  
  Analysis begun Tue May 13 12:36:48 2025

  WARNING: Negative pressures at 12:02:05 hrs.
  WARNING: Node NMVER disconnected at 12:02:05 hrs
  WARNING: System disconnected because of Link 832
   
  WARNING: Negative pressures at 12:02:21 hrs.
  WARNING: Node NMVER disconnected at 12:02:21 hrs
  WARNING: System disconnected because of Link 832
   
  WARNING: Negative pressures at 12:02:27 hrs.
  WARNING: Node NMVER disconnected at 12:02:27 hrs
  WARNING: System disconnected because of Link 832
   
  WARNING: Negative pressures at 12:16:51 hrs.
  WARNING: Node NMVER disconnected at 12:16:51 hrs
  WARNING: System disconnected because of Link 832
   
  WARNING: Negative pressures at 12:17:14 hrs.
  WARNING: Node NMVER disconnected at 12:17:14 hrs
  WARNING: System disconnected because of Link 832
   
  WARNING: Negative pressures at 12:19:36 hrs.
  WARNING: Node NMVER disconnected at 12:19:36 hrs
  WARNING: System disconnected because of Link 832
   
  WARNING: Negative pressures at 12:19:49 hrs.
  WARNING: Node NMVER disconnected at 12:19:49 hrs
  WARNING: System disconnected because of Link 832
   
  WARNING: Negative pressures at 12:19:55 hrs.
  WARNING: Node NMVER disconnected at 12:19:55 hrs
  WARNING: System disconnected because of Link 832
   
  WARNING: Negative pressures at 12:19:56 hrs.
  WARNING: Node NMVER disconnected at 12:19:56 hrs
  WARNING: System disconnected because of Link 832
   
  WARNING: Negative pressures at 12:19:58 hrs.
  WARNING: Node NMVER disconnected at 12:19:58 hrs
  WARNING: System disconnected because of Link 832
   
  WARNING: Negative pressures at 12:19:59 hrs.
  WARNING: Node NMVER disconnected at 12:19:59 hrs
  WARNING: System disconnected because of Link 832
   
  WARNING: Negative pressures at 12:24:00 hrs.
  WARNING: Node NMVER disconnected at 12:24:00 hrs
  WARNING: System disconnected because of Link 832
   
  WARNING: Negative pressures at 12:28:51 hrs.
  WARNING: Node NMVER disconnected at 12:28:51 hrs
  WARNING: System disconnected because of Link 832
   
  WARNING: Negative pressures at 12:43:23 hrs.
  WARNING: Node NMVER disconnected at 12:43:23 hrs
  WARNING: System disconnected because of Link 832
   
  WARNING: Negative pressures at 12:56:11 hrs.
  WARNING: Node NMVER disconnected at 12:56:11 hrs
  WARNING: System disconnected because of Link 832
   
  WARNING: Negative pressures at 13:01:31 hrs.
  WARNING: Node NMVER disconnected at 13:01:31 hrs
  WARNING: System disconnected because of Link 832
   
  WARNING: Negative pressures at 13:06:15 hrs.
  WARNING: Node NMVER disconnected at 13:06:15 hrs
  WARNING: System disconnected because of Link 832
   
  WARNING: Negative pressures at 13:14:24 hrs.
  WARNING: Node NMVER disconnected at 13:14:24 hrs
  WARNING: System disconnected because of Link 832
   
  WARNING: Negative pressures at 13:17:00 hrs.
  WARNING: Node NMVER disconnected at 13:17:00 hrs
  WARNING: System disconnected because of Link 832
   
  WARNING: Negative pressures at 13:17:13 hrs.
  WARNING: Node NMVER disconnected at 13:17:13 hrs
  WARNING: System disconnected because of Link 832
   
  WARNING: Negative pressures at 13:17:41 hrs.
  WARNING: Node NMVER disconnected at 13:17:41 hrs
  WARNING: System disconnected because of Link 832
   
  WARNING: Negative pressures at 13:20:36 hrs.
  WARNING: Node NMVER disconnected at 13:20:36 hrs
  WARNING: System disconnected because of Link 832
   
  WARNING: Negative pressures at 13:20:51 hrs.
  WARNING: Node NMVER disconnected at 13:20:51 hrs
  WARNING: System disconnected because of Link 832
   
  WARNING: Negative pressures at 13:21:11 hrs.
  WARNING: Node NMVER disconnected at 13:21:11 hrs
  WARNING: System disconnected because of Link 832
   
  WARNING: Negative pressures at 13:28:23 hrs.
  WARNING: Node NMVER disconnected at 13:28:23 hrs
  WARNING: System disconnected because of Link 832
   
  WARNING: Negative pressures at 13:33:10 hrs.
  WARNING: Node NMVER disconnected at 13:33:10 hrs
  WARNING: System disconnected because of Link 832
   
  WARNING: Negative pressures at 13:35:01 hrs.
  WARNING: Node NMVER disconnected at 13:35:01 hrs
  WARNING: System disconnected because of Link 832
   
  WARNING: Negative pressures at 13:35:02 hrs.
  WARNING: Node NMVER disconnected at 13:35:02 hrs
  WARNING: System disconnected because of Link 832
   
  WARNING: Negative pressures at 13:35:03 hrs.
  WARNING: Node NMVER disconnected at 13:35:03 hrs
  WARNING: System disconnected because of Link 832
   
  WARNING: Negative pressures at 13:39:19 hrs.
  WARNING: Node NMVER disconnected at 13:39:19 hrs
  WARNING: System disconnected because of Link 832
   
  WARNING: Negative pressures at 13:39:20 hrs.
  WARNING: Node NMVER disconnected at 13:39:20 hrs
  WARNING: System disconnected because of Link 832
   
  WARNING: Negative pressures at 13:41:46 hrs.
  WARNING: Node NMVER disconnected at 13:41:46 hrs
  WARNING: System disconnected because of Link 832
   
  WARNING: Negative pressures at 13:42:22 hrs.
  WARNING: Node NMVER disconnected at 13:42:22 hrs
  WARNING: System disconnected because of Link 832
   
  WARNING: Negative pressures at 13:42:23 hrs.
  WARNING: Node NMVER disconnected at 13:42:23 hrs
  WARNING: System disconnected because of Link 832
   
  WARNING: Negative pressures at 13:42:38 hrs.
  WARNING: Node NMVER disconnected at 13:42:38 hrs
  WARNING: System disconnected because of Link 832
   
  WARNING: Negative pressures at 13:45:01 hrs.
  WARNING: Node NMVER disconnected at 13:45:01 hrs
  WARNING: System disconnected because of Link 832
   
  WARNING: Negative pressures at 13:56:38 hrs.
  WARNING: Node NMVER disconnected at 13:56:38 hrs
  WARNING: System disconnected because of Link 832
   
  WARNING: Negative pressures at 13:59:54 hrs.
  WARNING: Node NMVER disconnected at 13:59:54 hrs
  WARNING: System disconnected because of Link 832
   
  WARNING: Negative pressures at 14:04:13 hrs.
  WARNING: Node NMVER disconnected at 14:04:13 hrs
  WARNING: System disconnected because of Link 832
   
  WARNING: Negative pressures at 14:05:15 hrs.
  WARNING: Node NMVER disconnected at 14:05:15 hrs
  WARNING: System disconnected because of Link 832
   
  WARNING: Negative pressures at 14:05:16 hrs.
  WARNING: Node NMVER disconnected at 14:05:16 hrs
  WARNING: System disconnected because of Link 832
   
  WARNING: Negative pressures at 14:09:40 hrs.
  WARNING: Node NMVER disconnected at 14:09:40 hrs
  WARNING: System disconnected because of Link 832
   
  WARNING: Negative pressures at 14:11:06 hrs.
  WARNING: Node NMVER disconnected at 14:11:06 hrs
  WARNING: System disconnected because of Link 832
   
  WARNING: Negative pressures at 14:11:07 hrs.
  WARNING: Node NMVER disconnected at 14:11:07 hrs
  WARNING: System disconnected because of Link 832
   
  WARNING: Negative pressures at 14:11:08 hrs.
  WARNING: Node NMVER disconnected at 14:11:08 hrs
  WARNING: System disconnected because of Link 832
   
  WARNING: Negative pressures at 14:11:37 hrs.
  WARNING: Node NMVER disconnected at 14:11:37 hrs
  WARNING: System disconnected because of Link 832
   
  WARNING: Negative pressures at 14:11:56 hrs.
  WARNING: Node NMVER disconnected at 14:11:56 hrs
  WARNING: System disconnected because of Link 832
   
  WARNING: Negative pressures at 14:13:16 hrs.
  WARNING: Node NMVER disconnected at 14:13:16 hrs
  WARNING: System disconnected because of Link 832
   
  WARNING: Negative pressures at 14:17:22 hrs.
  WARNING: Node NMVER disconnected at 14:17:22 hrs
  WARNING: System disconnected because of Link 832
   
  WARNING: Negative pressures at 14:21:08 hrs.
  WARNING: Node NMVER disconnected at 14:21:08 hrs
  WARNING: System disconnected because of Link 832
   
  WARNING: Negative pressures at 14:21:55 hrs.
  WARNING: Node NMVER disconnected at 14:21:55 hrs
  WARNING: System disconnected because of Link 832
   
  WARNING: Negative pressures at 14:22:28 hrs.
  WARNING: Node NMVER disconnected at 14:22:28 hrs
  WARNING: System disconnected because of Link 832
   
  WARNING: Negative pressures at 14:23:50 hrs.
  WARNING: Node NMVER disconnected at 14:23:50 hrs
  WARNING: System disconnected because of Link 832
   
  WARNING: Negative pressures at 14:25:40 hrs.
  WARNING: Node NMVER disconnected at 14:25:40 hrs
  WARNING: System disconnected because of Link 832
   
  WARNING: Negative pressures at 14:25:41 hrs.
  WARNING: Node NMVER disconnected at 14:25:41 hrs
  WARNING: System disconnected because of Link 832
   
  WARNING: Negative pressures at 14:30:51 hrs.
  WARNING: Node NMVER disconnected at 14:30:51 hrs
  WARNING: System disconnected because of Link 832
   
  WARNING: Negative pressures at 14:30:52 hrs.
  WARNING: Node NMVER disconnected at 14:30:52 hrs
  WARNING: System disconnected because of Link 832
   
  WARNING: Negative pressures at 14:31:11 hrs.
  WARNING: Node NMVER disconnected at 14:31:11 hrs
  WARNING: System disconnected because of Link 832
   
  WARNING: Negative pressures at 14:39:41 hrs.
  WARNING: Node NMVER disconnected at 14:39:41 hrs
  WARNING: System disconnected because of Link 832
   
  WARNING: Negative pressures at 14:40:54 hrs.
  WARNING: Node NMVER disconnected at 14:40:54 hrs
  WARNING: System disconnected because of Link 832
   
  WARNING: Negative pressures at 14:49:16 hrs.
  WARNING: Node NMVER disconnected at 14:49:16 hrs
  WARNING: System disconnected because of Link 832
   
  WARNING: Negative pressures at 15:02:47 hrs.
  WARNING: Node NMVER disconnected at 15:02:47 hrs
  WARNING: System disconnected because of Link 832
   
  WARNING: Negative pressures at 15:07:08 hrs.
  WARNING: Node NMVER disconnected at 15:07:08 hrs
  WARNING: System disconnected because of Link 832
   
  WARNING: Negative pressures at 15:08:04 hrs.
  WARNING: Node NMVER disconnected at 15:08:04 hrs
  WARNING: System disconnected because of Link 832
   
  WARNING: Negative pressures at 15:08:05 hrs.
  WARNING: Node NMVER disconnected at 15:08:05 hrs
  WARNING: System disconnected because of Link 832
   
  WARNING: Negative pressures at 15:09:07 hrs.
  WARNING: Node NMVER disconnected at 15:09:07 hrs
  WARNING: System disconnected because of Link 832
   
  WARNING: Negative pressures at 15:09:08 hrs.
  WARNING: Node NMVER disconnected at 15:09:08 hrs
  WARNING: System disconnected because of Link 832
   
  WARNING: Negative pressures at 15:09:09 hrs.
  WARNING: Node NMVER disconnected at 15:09:09 hrs
  WARNING: System disconnected because of Link 832
   
  WARNING: Negative pressures at 15:12:14 hrs.
  WARNING: Node NMVER disconnected at 15:12:14 hrs
  WARNING: System disconnected because of Link 832
   
  WARNING: Negative pressures at 15:12:15 hrs.
  WARNING: Node NMVER disconnected at 15:12:15 hrs
  WARNING: System disconnected because of Link 832
   
  WARNING: Negative pressures at 15:14:54 hrs.
  WARNING: Node NMVER disconnected at 15:14:54 hrs
  WARNING: System disconnected because of Link 832
   
  WARNING: Negative pressures at 15:15:31 hrs.
  WARNING: Node NMVER disconnected at 15:15:31 hrs
  WARNING: System disconnected because of Link 832
   
  WARNING: Negative pressures at 15:20:23 hrs.
  WARNING: Node NMVER disconnected at 15:20:23 hrs
  WARNING: System disconnected because of Link 832
   
  WARNING: Negative pressures at 15:40:23 hrs.
  WARNING: Node NMVER disconnected at 15:40:23 hrs
  WARNING: System disconnected because of Link 832
   
  WARNING: Negative pressures at 16:33:55 hrs.
  WARNING: Node NMVER disconnected at 16:33:55 hrs
  WARNING: System disconnected because of Link 832
   
  WARNING: Negative pressures at 16:47:59 hrs.
  WARNING: Node NMVER disconnected at 16:47:59 hrs
  WARNING: System disconnected because of Link 832
   
  WARNING: Negative pressures at 17:48:50 hrs.
  WARNING: Node NMVER disconnected at 17:48:50 hrs
  WARNING: System disconnected because of Link 832
   
  WARNING: Negative pressures at 18:09:29 hrs.
  WARNING: Node NMVER disconnected at 18:09:29 hrs
  WARNING: System disconnected because of Link 832
   
  WARNING: Negative pressures at 18:10:07 hrs.
  WARNING: Node NMVER disconnected at 18:10:07 hrs
  WARNING: System disconnected because of Link 832
   
  WARNING: Negative pressures at 18:13:40 hrs.
  WARNING: Node NMVER disconnected at 18:13:40 hrs
  WARNING: System disconnected because of Link 832
   
  WARNING: Negative pressures at 18:15:46 hrs.
  WARNING: Node NMVER disconnected at 18:15:46 hrs
  WARNING: System disconnected because of Link 832
   
  WARNING: Negative pressures at 18:15:47 hrs.
  WARNING: Node NMVER disconnected at 18:15:47 hrs
  WARNING: System disconnected because of Link 832
   
  WARNING: Negative pressures at 18:40:01 hrs.
  WARNING: Node NMVER disconnected at 18:40:01 hrs
  WARNING: System disconnected because of Link 832
   
  WARNING: Negative pressures at 18:40:02 hrs.
  WARNING: Node NMVER disconnected at 18:40:02 hrs
  WARNING: System disconnected because of Link 832
   
  WARNING: Negative pressures at 19:01:49 hrs.
  WARNING: Node NMVER disconnected at 19:01:49 hrs
  WARNING: System disconnected because of Link 832
   
  WARNING: Negative pressures at 19:02:06 hrs.
  WARNING: Node NMVER disconnected at 19:02:06 hrs
  WARNING: System disconnected because of Link 832
   
  WARNING: Negative pressures at 19:03:50 hrs.
  WARNING: Node NMVER disconnected at 19:03:50 hrs
  WARNING: System disconnected because of Link 832
   
  WARNING: Negative pressures at 19:07:01 hrs.
  WARNING: Node NMVER disconnected at 19:07:01 hrs
  WARNING: System disconnected because of Link 832
   
  WARNING: Negative pressures at 19:09:38 hrs.
  WARNING: Node NMVER disconnected at 19:09:38 hrs
  WARNING: System disconnected because of Link 832
   
  WARNING: Negative pressures at 19:10:06 hrs.
  WARNING: Node NMVER disconnected at 19:10:06 hrs
  WARNING: System disconnected because of Link 832
   
  WARNING: Negative pressures at 19:12:37 hrs.
  WARNING: Node NMVER disconnected at 19:12:37 hrs
  WARNING: System disconnected because of Link 832
   
  WARNING: Negative pressures at 19:12:38 hrs.
  WARNING: Node NMVER disconnected at 19:12:38 hrs
  WARNING: System disconnected because of Link 832
   
  WARNING: Negative pressures at 19:24:00 hrs.
  WARNING: Node NMVER disconnected at 19:24:00 hrs
  WARNING: System disconnected because of Link 832
   
  WARNING: Negative pressures at 19:24:16 hrs.
  WARNING: Node NMVER disconnected at 19:24:16 hrs
  WARNING: System disconnected because of Link 832
   
  WARNING: Negative pressures at 19:24:58 hrs.
  WARNING: Node NMVER disconnected at 19:24:58 hrs
  WARNING: System disconnected because of Link 832
   
  WARNING: Negative pressures at 19:30:47 hrs.
  WARNING: Node NMVER disconnected at 19:30:47 hrs
  WARNING: System disconnected because of Link 832
   
  WARNING: Negative pressures at 19:30:55 hrs.
  WARNING: Node NMVER disconnected at 19:30:55 hrs
  WARNING: System disconnected because of Link 832
   
  WARNING: Negative pressures at 19:58:48 hrs.
  WARNING: Node NMVER disconnected at 19:58:48 hrs
  WARNING: System disconnected because of Link 832
   
  WARNING: Negative pressures at 19:59:49 hrs.
  WARNING: Node NMVER disconnected at 19:59:49 hrs
  WARNING: System disconnected because of Link 832
   
  WARNING: Negative pressures at 20:00:58 hrs.
  WARNING: Node NMVER disconnected at 20:00:58 hrs
  WARNING: System disconnected because of Link 832
   
  WARNING: Negative pressures at 20:06:26 hrs.
  WARNING: Node NMVER disconnected at 20:06:26 hrs
  WARNING: System disconnected because of Link 832
   
  WARNING: Negative pressures at 20:49:37 hrs.
  WARNING: Node NMVER disconnected at 20:49:37 hrs
  WARNING: System disconnected because of Link 832
   
  WARNING: Negative pressures at 20:50:01 hrs.
  WARNING: Node NMVER disconnected at 20:50:01 hrs
  WARNING: System disconnected because of Link 832
   
  WARNING: Negative pressures at 20:50:02 hrs.
  WARNING: Node NMVER disconnected at 20:50:02 hrs
  WARNING: System disconnected because of Link 832
   
  WARNING: Negative pressures at 21:26:53 hrs.
  WARNING: Node NMVER disconnected at 21:26:53 hrs
  WARNING: System disconnected because of Link 832
   
  WARNING: Negative pressures at 21:27:29 hrs.
  WARNING: Node NMVER disconnected at 21:27:29 hrs
  WARNING: System disconnected because of Link 832
   
  WARNING: Negative pressures at 21:27:30 hrs.
  WARNING: Node NMVER disconnected at 21:27:30 hrs
  WARNING: System disconnected because of Link 832
   
  WARNING: Negative pressures at 21:30:19 hrs.
  WARNING: Node NMVER disconnected at 21:30:19 hrs
  WARNING: System disconnected because of Link 832
   
  WARNING: Negative pressures at 21:30:20 hrs.
  WARNING: Node NMVER disconnected at 21:30:20 hrs
  WARNING: System disconnected because of Link 832
   
  WARNING: Negative pressures at 21:40:39 hrs.
  WARNING: Node NMVER disconnected at 21:40:39 hrs
  WARNING: System disconnected because of Link 832
   
  WARNING: Negative pressures at 21:41:14 hrs.
  WARNING: Node NMVER disconnected at 21:41:14 hrs
  WARNING: System disconnected because of Link 832
   
  WARNING: Negative pressures at 21:45:46 hrs.
  WARNING: Node NMVER disconnected at 21:45:46 hrs
  WARNING: System disconnected because of Link 832
   
  Analysis ended Tue May 13 12:37:22 2025
